*SPEF "ieee 1481-1999"
*DESIGN "user_proj_example"
*DATE "11:11:11 Fri 11 11, 1111"
*VENDOR "OpenRCX"
*PROGRAM "Parallel Extraction"
*VERSION "1.0"
*DESIGN_FLOW "NAME_SCOPE LOCAL" "PIN_CAP NONE"
*DIVIDER /
*DELIMITER :
*BUS_DELIMITER []
*T_UNIT 1 NS
*C_UNIT 1 PF
*R_UNIT 1 OHM
*L_UNIT 1 HENRY

*NAME_MAP
*1 net6
*2 net7
*3 net8
*4 net9
*5 io_out[0]
*6 io_out[1]
*7 io_out[2]
*8 io_out[3]
*11 wb_clk_i
*12 wb_rst_i
*13 _00_
*14 _01_
*15 _02_
*16 _03_
*17 _04_
*18 _05_
*19 _06_
*20 _07_
*21 _08_
*22 clknet_0_wb_clk_i
*23 clknet_1_0__leaf_wb_clk_i
*24 clknet_1_1__leaf_wb_clk_i
*25 net1
*26 net10
*27 net11
*28 net12
*29 net13
*30 net14
*31 net15
*32 net16
*33 net17
*34 net2
*35 net3
*36 net4
*37 net5
*38 ANTENNA_hold2_A
*39 ANTENNA_hold6_A
*40 ANTENNA_output4_A
*41 ANTENNA_output5_A
*42 FILLER_0_0_109
*43 FILLER_0_0_113
*44 FILLER_0_0_125
*45 FILLER_0_0_137
*46 FILLER_0_0_141
*47 FILLER_0_0_149
*48 FILLER_0_0_15
*49 FILLER_0_0_154
*50 FILLER_0_0_166
*51 FILLER_0_0_169
*52 FILLER_0_0_181
*53 FILLER_0_0_27
*54 FILLER_0_0_29
*55 FILLER_0_0_3
*56 FILLER_0_0_41
*57 FILLER_0_0_53
*58 FILLER_0_0_57
*59 FILLER_0_0_69
*60 FILLER_0_0_81
*61 FILLER_0_0_85
*62 FILLER_0_0_97
*63 FILLER_0_10_109
*64 FILLER_0_10_121
*65 FILLER_0_10_133
*66 FILLER_0_10_139
*67 FILLER_0_10_141
*68 FILLER_0_10_15
*69 FILLER_0_10_153
*70 FILLER_0_10_157
*71 FILLER_0_10_171
*72 FILLER_0_10_27
*73 FILLER_0_10_29
*74 FILLER_0_10_3
*75 FILLER_0_10_41
*76 FILLER_0_10_53
*77 FILLER_0_10_65
*78 FILLER_0_10_77
*79 FILLER_0_10_83
*80 FILLER_0_10_85
*81 FILLER_0_10_97
*82 FILLER_0_11_105
*83 FILLER_0_11_111
*84 FILLER_0_11_113
*85 FILLER_0_11_125
*86 FILLER_0_11_137
*87 FILLER_0_11_149
*88 FILLER_0_11_15
*89 FILLER_0_11_157
*90 FILLER_0_11_163
*91 FILLER_0_11_167
*92 FILLER_0_11_169
*93 FILLER_0_11_181
*94 FILLER_0_11_187
*95 FILLER_0_11_27
*96 FILLER_0_11_3
*97 FILLER_0_11_39
*98 FILLER_0_11_51
*99 FILLER_0_11_55
*100 FILLER_0_11_57
*101 FILLER_0_11_69
*102 FILLER_0_11_81
*103 FILLER_0_11_93
*104 FILLER_0_12_109
*105 FILLER_0_12_121
*106 FILLER_0_12_133
*107 FILLER_0_12_139
*108 FILLER_0_12_141
*109 FILLER_0_12_15
*110 FILLER_0_12_153
*111 FILLER_0_12_165
*112 FILLER_0_12_177
*113 FILLER_0_12_189
*114 FILLER_0_12_27
*115 FILLER_0_12_29
*116 FILLER_0_12_3
*117 FILLER_0_12_41
*118 FILLER_0_12_53
*119 FILLER_0_12_65
*120 FILLER_0_12_77
*121 FILLER_0_12_83
*122 FILLER_0_12_85
*123 FILLER_0_12_97
*124 FILLER_0_13_105
*125 FILLER_0_13_111
*126 FILLER_0_13_113
*127 FILLER_0_13_125
*128 FILLER_0_13_137
*129 FILLER_0_13_149
*130 FILLER_0_13_15
*131 FILLER_0_13_161
*132 FILLER_0_13_167
*133 FILLER_0_13_169
*134 FILLER_0_13_181
*135 FILLER_0_13_27
*136 FILLER_0_13_3
*137 FILLER_0_13_39
*138 FILLER_0_13_51
*139 FILLER_0_13_55
*140 FILLER_0_13_57
*141 FILLER_0_13_69
*142 FILLER_0_13_81
*143 FILLER_0_13_93
*144 FILLER_0_14_109
*145 FILLER_0_14_121
*146 FILLER_0_14_133
*147 FILLER_0_14_139
*148 FILLER_0_14_141
*149 FILLER_0_14_15
*150 FILLER_0_14_153
*151 FILLER_0_14_165
*152 FILLER_0_14_177
*153 FILLER_0_14_189
*154 FILLER_0_14_27
*155 FILLER_0_14_29
*156 FILLER_0_14_3
*157 FILLER_0_14_41
*158 FILLER_0_14_53
*159 FILLER_0_14_65
*160 FILLER_0_14_77
*161 FILLER_0_14_83
*162 FILLER_0_14_85
*163 FILLER_0_14_97
*164 FILLER_0_15_105
*165 FILLER_0_15_111
*166 FILLER_0_15_113
*167 FILLER_0_15_125
*168 FILLER_0_15_137
*169 FILLER_0_15_149
*170 FILLER_0_15_15
*171 FILLER_0_15_161
*172 FILLER_0_15_167
*173 FILLER_0_15_169
*174 FILLER_0_15_181
*175 FILLER_0_15_189
*176 FILLER_0_15_27
*177 FILLER_0_15_3
*178 FILLER_0_15_39
*179 FILLER_0_15_51
*180 FILLER_0_15_55
*181 FILLER_0_15_57
*182 FILLER_0_15_69
*183 FILLER_0_15_81
*184 FILLER_0_15_93
*185 FILLER_0_16_109
*186 FILLER_0_16_121
*187 FILLER_0_16_133
*188 FILLER_0_16_139
*189 FILLER_0_16_141
*190 FILLER_0_16_15
*191 FILLER_0_16_153
*192 FILLER_0_16_165
*193 FILLER_0_16_177
*194 FILLER_0_16_189
*195 FILLER_0_16_27
*196 FILLER_0_16_29
*197 FILLER_0_16_3
*198 FILLER_0_16_41
*199 FILLER_0_16_53
*200 FILLER_0_16_65
*201 FILLER_0_16_77
*202 FILLER_0_16_83
*203 FILLER_0_16_85
*204 FILLER_0_16_97
*205 FILLER_0_17_105
*206 FILLER_0_17_111
*207 FILLER_0_17_113
*208 FILLER_0_17_125
*209 FILLER_0_17_137
*210 FILLER_0_17_149
*211 FILLER_0_17_15
*212 FILLER_0_17_161
*213 FILLER_0_17_167
*214 FILLER_0_17_169
*215 FILLER_0_17_181
*216 FILLER_0_17_189
*217 FILLER_0_17_27
*218 FILLER_0_17_3
*219 FILLER_0_17_39
*220 FILLER_0_17_51
*221 FILLER_0_17_55
*222 FILLER_0_17_57
*223 FILLER_0_17_69
*224 FILLER_0_17_81
*225 FILLER_0_17_93
*226 FILLER_0_18_109
*227 FILLER_0_18_121
*228 FILLER_0_18_133
*229 FILLER_0_18_139
*230 FILLER_0_18_141
*231 FILLER_0_18_15
*232 FILLER_0_18_153
*233 FILLER_0_18_165
*234 FILLER_0_18_177
*235 FILLER_0_18_189
*236 FILLER_0_18_27
*237 FILLER_0_18_29
*238 FILLER_0_18_3
*239 FILLER_0_18_41
*240 FILLER_0_18_53
*241 FILLER_0_18_65
*242 FILLER_0_18_77
*243 FILLER_0_18_83
*244 FILLER_0_18_85
*245 FILLER_0_18_97
*246 FILLER_0_19_105
*247 FILLER_0_19_111
*248 FILLER_0_19_113
*249 FILLER_0_19_125
*250 FILLER_0_19_137
*251 FILLER_0_19_149
*252 FILLER_0_19_15
*253 FILLER_0_19_161
*254 FILLER_0_19_167
*255 FILLER_0_19_169
*256 FILLER_0_19_181
*257 FILLER_0_19_189
*258 FILLER_0_19_27
*259 FILLER_0_19_3
*260 FILLER_0_19_39
*261 FILLER_0_19_51
*262 FILLER_0_19_55
*263 FILLER_0_19_57
*264 FILLER_0_19_69
*265 FILLER_0_19_81
*266 FILLER_0_19_93
*267 FILLER_0_1_105
*268 FILLER_0_1_111
*269 FILLER_0_1_113
*270 FILLER_0_1_125
*271 FILLER_0_1_137
*272 FILLER_0_1_149
*273 FILLER_0_1_15
*274 FILLER_0_1_161
*275 FILLER_0_1_185
*276 FILLER_0_1_189
*277 FILLER_0_1_27
*278 FILLER_0_1_3
*279 FILLER_0_1_39
*280 FILLER_0_1_51
*281 FILLER_0_1_55
*282 FILLER_0_1_57
*283 FILLER_0_1_69
*284 FILLER_0_1_81
*285 FILLER_0_1_93
*286 FILLER_0_20_109
*287 FILLER_0_20_121
*288 FILLER_0_20_133
*289 FILLER_0_20_139
*290 FILLER_0_20_141
*291 FILLER_0_20_15
*292 FILLER_0_20_153
*293 FILLER_0_20_165
*294 FILLER_0_20_177
*295 FILLER_0_20_189
*296 FILLER_0_20_27
*297 FILLER_0_20_29
*298 FILLER_0_20_3
*299 FILLER_0_20_41
*300 FILLER_0_20_53
*301 FILLER_0_20_65
*302 FILLER_0_20_77
*303 FILLER_0_20_83
*304 FILLER_0_20_85
*305 FILLER_0_20_97
*306 FILLER_0_21_105
*307 FILLER_0_21_111
*308 FILLER_0_21_113
*309 FILLER_0_21_125
*310 FILLER_0_21_137
*311 FILLER_0_21_149
*312 FILLER_0_21_15
*313 FILLER_0_21_161
*314 FILLER_0_21_167
*315 FILLER_0_21_169
*316 FILLER_0_21_181
*317 FILLER_0_21_189
*318 FILLER_0_21_27
*319 FILLER_0_21_3
*320 FILLER_0_21_39
*321 FILLER_0_21_51
*322 FILLER_0_21_55
*323 FILLER_0_21_57
*324 FILLER_0_21_69
*325 FILLER_0_21_81
*326 FILLER_0_21_93
*327 FILLER_0_22_109
*328 FILLER_0_22_121
*329 FILLER_0_22_133
*330 FILLER_0_22_139
*331 FILLER_0_22_141
*332 FILLER_0_22_15
*333 FILLER_0_22_153
*334 FILLER_0_22_165
*335 FILLER_0_22_177
*336 FILLER_0_22_189
*337 FILLER_0_22_27
*338 FILLER_0_22_29
*339 FILLER_0_22_3
*340 FILLER_0_22_41
*341 FILLER_0_22_53
*342 FILLER_0_22_65
*343 FILLER_0_22_77
*344 FILLER_0_22_83
*345 FILLER_0_22_85
*346 FILLER_0_22_97
*347 FILLER_0_23_105
*348 FILLER_0_23_111
*349 FILLER_0_23_113
*350 FILLER_0_23_125
*351 FILLER_0_23_137
*352 FILLER_0_23_149
*353 FILLER_0_23_15
*354 FILLER_0_23_161
*355 FILLER_0_23_167
*356 FILLER_0_23_169
*357 FILLER_0_23_181
*358 FILLER_0_23_189
*359 FILLER_0_23_27
*360 FILLER_0_23_3
*361 FILLER_0_23_39
*362 FILLER_0_23_51
*363 FILLER_0_23_55
*364 FILLER_0_23_57
*365 FILLER_0_23_69
*366 FILLER_0_23_81
*367 FILLER_0_23_93
*368 FILLER_0_24_109
*369 FILLER_0_24_121
*370 FILLER_0_24_133
*371 FILLER_0_24_139
*372 FILLER_0_24_141
*373 FILLER_0_24_15
*374 FILLER_0_24_153
*375 FILLER_0_24_165
*376 FILLER_0_24_177
*377 FILLER_0_24_189
*378 FILLER_0_24_27
*379 FILLER_0_24_29
*380 FILLER_0_24_3
*381 FILLER_0_24_41
*382 FILLER_0_24_53
*383 FILLER_0_24_65
*384 FILLER_0_24_77
*385 FILLER_0_24_83
*386 FILLER_0_24_85
*387 FILLER_0_24_97
*388 FILLER_0_25_105
*389 FILLER_0_25_111
*390 FILLER_0_25_113
*391 FILLER_0_25_125
*392 FILLER_0_25_137
*393 FILLER_0_25_149
*394 FILLER_0_25_15
*395 FILLER_0_25_161
*396 FILLER_0_25_167
*397 FILLER_0_25_169
*398 FILLER_0_25_173
*399 FILLER_0_25_27
*400 FILLER_0_25_3
*401 FILLER_0_25_39
*402 FILLER_0_25_51
*403 FILLER_0_25_55
*404 FILLER_0_25_57
*405 FILLER_0_25_69
*406 FILLER_0_25_81
*407 FILLER_0_25_93
*408 FILLER_0_26_109
*409 FILLER_0_26_121
*410 FILLER_0_26_133
*411 FILLER_0_26_139
*412 FILLER_0_26_141
*413 FILLER_0_26_15
*414 FILLER_0_26_153
*415 FILLER_0_26_165
*416 FILLER_0_26_177
*417 FILLER_0_26_189
*418 FILLER_0_26_27
*419 FILLER_0_26_29
*420 FILLER_0_26_3
*421 FILLER_0_26_41
*422 FILLER_0_26_53
*423 FILLER_0_26_65
*424 FILLER_0_26_77
*425 FILLER_0_26_83
*426 FILLER_0_26_85
*427 FILLER_0_26_97
*428 FILLER_0_27_105
*429 FILLER_0_27_111
*430 FILLER_0_27_113
*431 FILLER_0_27_125
*432 FILLER_0_27_137
*433 FILLER_0_27_149
*434 FILLER_0_27_15
*435 FILLER_0_27_161
*436 FILLER_0_27_167
*437 FILLER_0_27_169
*438 FILLER_0_27_181
*439 FILLER_0_27_189
*440 FILLER_0_27_27
*441 FILLER_0_27_3
*442 FILLER_0_27_39
*443 FILLER_0_27_51
*444 FILLER_0_27_55
*445 FILLER_0_27_57
*446 FILLER_0_27_69
*447 FILLER_0_27_81
*448 FILLER_0_27_93
*449 FILLER_0_28_109
*450 FILLER_0_28_121
*451 FILLER_0_28_133
*452 FILLER_0_28_139
*453 FILLER_0_28_141
*454 FILLER_0_28_15
*455 FILLER_0_28_153
*456 FILLER_0_28_165
*457 FILLER_0_28_177
*458 FILLER_0_28_189
*459 FILLER_0_28_27
*460 FILLER_0_28_29
*461 FILLER_0_28_3
*462 FILLER_0_28_41
*463 FILLER_0_28_53
*464 FILLER_0_28_65
*465 FILLER_0_28_77
*466 FILLER_0_28_83
*467 FILLER_0_28_85
*468 FILLER_0_28_97
*469 FILLER_0_29_105
*470 FILLER_0_29_111
*471 FILLER_0_29_113
*472 FILLER_0_29_125
*473 FILLER_0_29_137
*474 FILLER_0_29_149
*475 FILLER_0_29_15
*476 FILLER_0_29_161
*477 FILLER_0_29_167
*478 FILLER_0_29_169
*479 FILLER_0_29_181
*480 FILLER_0_29_189
*481 FILLER_0_29_27
*482 FILLER_0_29_3
*483 FILLER_0_29_39
*484 FILLER_0_29_51
*485 FILLER_0_29_55
*486 FILLER_0_29_57
*487 FILLER_0_29_69
*488 FILLER_0_29_81
*489 FILLER_0_29_93
*490 FILLER_0_2_109
*491 FILLER_0_2_121
*492 FILLER_0_2_133
*493 FILLER_0_2_139
*494 FILLER_0_2_141
*495 FILLER_0_2_15
*496 FILLER_0_2_153
*497 FILLER_0_2_157
*498 FILLER_0_2_27
*499 FILLER_0_2_29
*500 FILLER_0_2_3
*501 FILLER_0_2_41
*502 FILLER_0_2_53
*503 FILLER_0_2_65
*504 FILLER_0_2_77
*505 FILLER_0_2_83
*506 FILLER_0_2_85
*507 FILLER_0_2_97
*508 FILLER_0_30_109
*509 FILLER_0_30_121
*510 FILLER_0_30_133
*511 FILLER_0_30_139
*512 FILLER_0_30_141
*513 FILLER_0_30_15
*514 FILLER_0_30_153
*515 FILLER_0_30_165
*516 FILLER_0_30_177
*517 FILLER_0_30_189
*518 FILLER_0_30_27
*519 FILLER_0_30_29
*520 FILLER_0_30_3
*521 FILLER_0_30_41
*522 FILLER_0_30_53
*523 FILLER_0_30_65
*524 FILLER_0_30_77
*525 FILLER_0_30_83
*526 FILLER_0_30_85
*527 FILLER_0_30_97
*528 FILLER_0_31_105
*529 FILLER_0_31_111
*530 FILLER_0_31_113
*531 FILLER_0_31_125
*532 FILLER_0_31_137
*533 FILLER_0_31_149
*534 FILLER_0_31_15
*535 FILLER_0_31_161
*536 FILLER_0_31_167
*537 FILLER_0_31_169
*538 FILLER_0_31_181
*539 FILLER_0_31_189
*540 FILLER_0_31_27
*541 FILLER_0_31_3
*542 FILLER_0_31_39
*543 FILLER_0_31_51
*544 FILLER_0_31_55
*545 FILLER_0_31_57
*546 FILLER_0_31_69
*547 FILLER_0_31_81
*548 FILLER_0_31_93
*549 FILLER_0_32_109
*550 FILLER_0_32_121
*551 FILLER_0_32_133
*552 FILLER_0_32_139
*553 FILLER_0_32_141
*554 FILLER_0_32_15
*555 FILLER_0_32_153
*556 FILLER_0_32_165
*557 FILLER_0_32_177
*558 FILLER_0_32_189
*559 FILLER_0_32_27
*560 FILLER_0_32_29
*561 FILLER_0_32_3
*562 FILLER_0_32_41
*563 FILLER_0_32_53
*564 FILLER_0_32_65
*565 FILLER_0_32_77
*566 FILLER_0_32_83
*567 FILLER_0_32_85
*568 FILLER_0_32_97
*569 FILLER_0_33_105
*570 FILLER_0_33_111
*571 FILLER_0_33_113
*572 FILLER_0_33_125
*573 FILLER_0_33_137
*574 FILLER_0_33_149
*575 FILLER_0_33_15
*576 FILLER_0_33_161
*577 FILLER_0_33_167
*578 FILLER_0_33_169
*579 FILLER_0_33_181
*580 FILLER_0_33_189
*581 FILLER_0_33_27
*582 FILLER_0_33_3
*583 FILLER_0_33_39
*584 FILLER_0_33_51
*585 FILLER_0_33_55
*586 FILLER_0_33_57
*587 FILLER_0_33_69
*588 FILLER_0_33_81
*589 FILLER_0_33_93
*590 FILLER_0_34_109
*591 FILLER_0_34_121
*592 FILLER_0_34_133
*593 FILLER_0_34_139
*594 FILLER_0_34_141
*595 FILLER_0_34_15
*596 FILLER_0_34_153
*597 FILLER_0_34_165
*598 FILLER_0_34_177
*599 FILLER_0_34_189
*600 FILLER_0_34_27
*601 FILLER_0_34_29
*602 FILLER_0_34_3
*603 FILLER_0_34_41
*604 FILLER_0_34_53
*605 FILLER_0_34_65
*606 FILLER_0_34_77
*607 FILLER_0_34_83
*608 FILLER_0_34_85
*609 FILLER_0_34_97
*610 FILLER_0_35_105
*611 FILLER_0_35_111
*612 FILLER_0_35_113
*613 FILLER_0_35_125
*614 FILLER_0_35_137
*615 FILLER_0_35_149
*616 FILLER_0_35_15
*617 FILLER_0_35_161
*618 FILLER_0_35_167
*619 FILLER_0_35_169
*620 FILLER_0_35_181
*621 FILLER_0_35_189
*622 FILLER_0_35_27
*623 FILLER_0_35_3
*624 FILLER_0_35_39
*625 FILLER_0_35_51
*626 FILLER_0_35_55
*627 FILLER_0_35_57
*628 FILLER_0_35_69
*629 FILLER_0_35_81
*630 FILLER_0_35_93
*631 FILLER_0_36_109
*632 FILLER_0_36_121
*633 FILLER_0_36_133
*634 FILLER_0_36_139
*635 FILLER_0_36_141
*636 FILLER_0_36_15
*637 FILLER_0_36_153
*638 FILLER_0_36_165
*639 FILLER_0_36_177
*640 FILLER_0_36_185
*641 FILLER_0_36_27
*642 FILLER_0_36_29
*643 FILLER_0_36_3
*644 FILLER_0_36_41
*645 FILLER_0_36_53
*646 FILLER_0_36_65
*647 FILLER_0_36_77
*648 FILLER_0_36_83
*649 FILLER_0_36_85
*650 FILLER_0_36_97
*651 FILLER_0_37_105
*652 FILLER_0_37_111
*653 FILLER_0_37_113
*654 FILLER_0_37_125
*655 FILLER_0_37_137
*656 FILLER_0_37_149
*657 FILLER_0_37_15
*658 FILLER_0_37_161
*659 FILLER_0_37_167
*660 FILLER_0_37_169
*661 FILLER_0_37_181
*662 FILLER_0_37_189
*663 FILLER_0_37_27
*664 FILLER_0_37_3
*665 FILLER_0_37_39
*666 FILLER_0_37_51
*667 FILLER_0_37_55
*668 FILLER_0_37_57
*669 FILLER_0_37_69
*670 FILLER_0_37_81
*671 FILLER_0_37_93
*672 FILLER_0_38_109
*673 FILLER_0_38_121
*674 FILLER_0_38_133
*675 FILLER_0_38_139
*676 FILLER_0_38_141
*677 FILLER_0_38_15
*678 FILLER_0_38_153
*679 FILLER_0_38_165
*680 FILLER_0_38_177
*681 FILLER_0_38_189
*682 FILLER_0_38_27
*683 FILLER_0_38_29
*684 FILLER_0_38_3
*685 FILLER_0_38_41
*686 FILLER_0_38_53
*687 FILLER_0_38_65
*688 FILLER_0_38_77
*689 FILLER_0_38_83
*690 FILLER_0_38_85
*691 FILLER_0_38_97
*692 FILLER_0_39_105
*693 FILLER_0_39_111
*694 FILLER_0_39_113
*695 FILLER_0_39_125
*696 FILLER_0_39_137
*697 FILLER_0_39_149
*698 FILLER_0_39_15
*699 FILLER_0_39_161
*700 FILLER_0_39_167
*701 FILLER_0_39_169
*702 FILLER_0_39_181
*703 FILLER_0_39_189
*704 FILLER_0_39_27
*705 FILLER_0_39_3
*706 FILLER_0_39_39
*707 FILLER_0_39_51
*708 FILLER_0_39_55
*709 FILLER_0_39_57
*710 FILLER_0_39_69
*711 FILLER_0_39_81
*712 FILLER_0_39_93
*713 FILLER_0_3_105
*714 FILLER_0_3_111
*715 FILLER_0_3_113
*716 FILLER_0_3_125
*717 FILLER_0_3_137
*718 FILLER_0_3_149
*719 FILLER_0_3_15
*720 FILLER_0_3_167
*721 FILLER_0_3_169
*722 FILLER_0_3_173
*723 FILLER_0_3_27
*724 FILLER_0_3_3
*725 FILLER_0_3_39
*726 FILLER_0_3_51
*727 FILLER_0_3_55
*728 FILLER_0_3_57
*729 FILLER_0_3_69
*730 FILLER_0_3_81
*731 FILLER_0_3_93
*732 FILLER_0_40_109
*733 FILLER_0_40_121
*734 FILLER_0_40_133
*735 FILLER_0_40_139
*736 FILLER_0_40_141
*737 FILLER_0_40_15
*738 FILLER_0_40_153
*739 FILLER_0_40_165
*740 FILLER_0_40_177
*741 FILLER_0_40_189
*742 FILLER_0_40_27
*743 FILLER_0_40_29
*744 FILLER_0_40_3
*745 FILLER_0_40_41
*746 FILLER_0_40_53
*747 FILLER_0_40_65
*748 FILLER_0_40_77
*749 FILLER_0_40_83
*750 FILLER_0_40_85
*751 FILLER_0_40_97
*752 FILLER_0_41_105
*753 FILLER_0_41_111
*754 FILLER_0_41_113
*755 FILLER_0_41_125
*756 FILLER_0_41_137
*757 FILLER_0_41_149
*758 FILLER_0_41_15
*759 FILLER_0_41_161
*760 FILLER_0_41_167
*761 FILLER_0_41_169
*762 FILLER_0_41_181
*763 FILLER_0_41_189
*764 FILLER_0_41_27
*765 FILLER_0_41_3
*766 FILLER_0_41_39
*767 FILLER_0_41_51
*768 FILLER_0_41_55
*769 FILLER_0_41_57
*770 FILLER_0_41_69
*771 FILLER_0_41_81
*772 FILLER_0_41_93
*773 FILLER_0_42_109
*774 FILLER_0_42_121
*775 FILLER_0_42_133
*776 FILLER_0_42_139
*777 FILLER_0_42_141
*778 FILLER_0_42_15
*779 FILLER_0_42_153
*780 FILLER_0_42_165
*781 FILLER_0_42_177
*782 FILLER_0_42_189
*783 FILLER_0_42_27
*784 FILLER_0_42_29
*785 FILLER_0_42_3
*786 FILLER_0_42_41
*787 FILLER_0_42_53
*788 FILLER_0_42_65
*789 FILLER_0_42_77
*790 FILLER_0_42_83
*791 FILLER_0_42_85
*792 FILLER_0_42_97
*793 FILLER_0_43_105
*794 FILLER_0_43_111
*795 FILLER_0_43_113
*796 FILLER_0_43_125
*797 FILLER_0_43_137
*798 FILLER_0_43_149
*799 FILLER_0_43_15
*800 FILLER_0_43_161
*801 FILLER_0_43_167
*802 FILLER_0_43_169
*803 FILLER_0_43_181
*804 FILLER_0_43_189
*805 FILLER_0_43_27
*806 FILLER_0_43_3
*807 FILLER_0_43_39
*808 FILLER_0_43_51
*809 FILLER_0_43_55
*810 FILLER_0_43_57
*811 FILLER_0_43_69
*812 FILLER_0_43_81
*813 FILLER_0_43_93
*814 FILLER_0_44_109
*815 FILLER_0_44_121
*816 FILLER_0_44_133
*817 FILLER_0_44_139
*818 FILLER_0_44_141
*819 FILLER_0_44_15
*820 FILLER_0_44_153
*821 FILLER_0_44_165
*822 FILLER_0_44_177
*823 FILLER_0_44_189
*824 FILLER_0_44_27
*825 FILLER_0_44_29
*826 FILLER_0_44_3
*827 FILLER_0_44_41
*828 FILLER_0_44_53
*829 FILLER_0_44_65
*830 FILLER_0_44_77
*831 FILLER_0_44_83
*832 FILLER_0_44_85
*833 FILLER_0_44_97
*834 FILLER_0_45_105
*835 FILLER_0_45_111
*836 FILLER_0_45_113
*837 FILLER_0_45_125
*838 FILLER_0_45_137
*839 FILLER_0_45_149
*840 FILLER_0_45_15
*841 FILLER_0_45_161
*842 FILLER_0_45_167
*843 FILLER_0_45_169
*844 FILLER_0_45_181
*845 FILLER_0_45_189
*846 FILLER_0_45_27
*847 FILLER_0_45_3
*848 FILLER_0_45_39
*849 FILLER_0_45_51
*850 FILLER_0_45_55
*851 FILLER_0_45_57
*852 FILLER_0_45_69
*853 FILLER_0_45_81
*854 FILLER_0_45_93
*855 FILLER_0_46_109
*856 FILLER_0_46_121
*857 FILLER_0_46_133
*858 FILLER_0_46_139
*859 FILLER_0_46_141
*860 FILLER_0_46_15
*861 FILLER_0_46_153
*862 FILLER_0_46_165
*863 FILLER_0_46_177
*864 FILLER_0_46_189
*865 FILLER_0_46_27
*866 FILLER_0_46_29
*867 FILLER_0_46_3
*868 FILLER_0_46_41
*869 FILLER_0_46_53
*870 FILLER_0_46_65
*871 FILLER_0_46_77
*872 FILLER_0_46_83
*873 FILLER_0_46_85
*874 FILLER_0_46_97
*875 FILLER_0_47_105
*876 FILLER_0_47_111
*877 FILLER_0_47_113
*878 FILLER_0_47_125
*879 FILLER_0_47_137
*880 FILLER_0_47_149
*881 FILLER_0_47_15
*882 FILLER_0_47_161
*883 FILLER_0_47_167
*884 FILLER_0_47_169
*885 FILLER_0_47_181
*886 FILLER_0_47_189
*887 FILLER_0_47_27
*888 FILLER_0_47_3
*889 FILLER_0_47_39
*890 FILLER_0_47_51
*891 FILLER_0_47_55
*892 FILLER_0_47_57
*893 FILLER_0_47_69
*894 FILLER_0_47_81
*895 FILLER_0_47_93
*896 FILLER_0_48_109
*897 FILLER_0_48_121
*898 FILLER_0_48_133
*899 FILLER_0_48_139
*900 FILLER_0_48_141
*901 FILLER_0_48_15
*902 FILLER_0_48_153
*903 FILLER_0_48_165
*904 FILLER_0_48_171
*905 FILLER_0_48_27
*906 FILLER_0_48_29
*907 FILLER_0_48_3
*908 FILLER_0_48_41
*909 FILLER_0_48_53
*910 FILLER_0_48_65
*911 FILLER_0_48_77
*912 FILLER_0_48_83
*913 FILLER_0_48_85
*914 FILLER_0_48_97
*915 FILLER_0_49_105
*916 FILLER_0_49_111
*917 FILLER_0_49_113
*918 FILLER_0_49_125
*919 FILLER_0_49_137
*920 FILLER_0_49_149
*921 FILLER_0_49_15
*922 FILLER_0_49_161
*923 FILLER_0_49_167
*924 FILLER_0_49_169
*925 FILLER_0_49_181
*926 FILLER_0_49_189
*927 FILLER_0_49_27
*928 FILLER_0_49_3
*929 FILLER_0_49_39
*930 FILLER_0_49_51
*931 FILLER_0_49_55
*932 FILLER_0_49_57
*933 FILLER_0_49_69
*934 FILLER_0_49_81
*935 FILLER_0_49_93
*936 FILLER_0_4_109
*937 FILLER_0_4_121
*938 FILLER_0_4_133
*939 FILLER_0_4_139
*940 FILLER_0_4_141
*941 FILLER_0_4_15
*942 FILLER_0_4_153
*943 FILLER_0_4_186
*944 FILLER_0_4_27
*945 FILLER_0_4_29
*946 FILLER_0_4_3
*947 FILLER_0_4_41
*948 FILLER_0_4_53
*949 FILLER_0_4_65
*950 FILLER_0_4_77
*951 FILLER_0_4_83
*952 FILLER_0_4_85
*953 FILLER_0_4_97
*954 FILLER_0_50_109
*955 FILLER_0_50_121
*956 FILLER_0_50_133
*957 FILLER_0_50_139
*958 FILLER_0_50_141
*959 FILLER_0_50_15
*960 FILLER_0_50_153
*961 FILLER_0_50_165
*962 FILLER_0_50_177
*963 FILLER_0_50_189
*964 FILLER_0_50_27
*965 FILLER_0_50_29
*966 FILLER_0_50_3
*967 FILLER_0_50_41
*968 FILLER_0_50_53
*969 FILLER_0_50_65
*970 FILLER_0_50_77
*971 FILLER_0_50_83
*972 FILLER_0_50_85
*973 FILLER_0_50_97
*974 FILLER_0_51_105
*975 FILLER_0_51_111
*976 FILLER_0_51_113
*977 FILLER_0_51_125
*978 FILLER_0_51_137
*979 FILLER_0_51_149
*980 FILLER_0_51_15
*981 FILLER_0_51_161
*982 FILLER_0_51_167
*983 FILLER_0_51_169
*984 FILLER_0_51_181
*985 FILLER_0_51_189
*986 FILLER_0_51_27
*987 FILLER_0_51_3
*988 FILLER_0_51_39
*989 FILLER_0_51_51
*990 FILLER_0_51_55
*991 FILLER_0_51_57
*992 FILLER_0_51_69
*993 FILLER_0_51_81
*994 FILLER_0_51_93
*995 FILLER_0_52_109
*996 FILLER_0_52_121
*997 FILLER_0_52_133
*998 FILLER_0_52_139
*999 FILLER_0_52_141
*1000 FILLER_0_52_15
*1001 FILLER_0_52_153
*1002 FILLER_0_52_165
*1003 FILLER_0_52_177
*1004 FILLER_0_52_189
*1005 FILLER_0_52_27
*1006 FILLER_0_52_29
*1007 FILLER_0_52_3
*1008 FILLER_0_52_41
*1009 FILLER_0_52_53
*1010 FILLER_0_52_65
*1011 FILLER_0_52_77
*1012 FILLER_0_52_83
*1013 FILLER_0_52_85
*1014 FILLER_0_52_97
*1015 FILLER_0_53_105
*1016 FILLER_0_53_111
*1017 FILLER_0_53_113
*1018 FILLER_0_53_125
*1019 FILLER_0_53_137
*1020 FILLER_0_53_149
*1021 FILLER_0_53_15
*1022 FILLER_0_53_161
*1023 FILLER_0_53_167
*1024 FILLER_0_53_169
*1025 FILLER_0_53_181
*1026 FILLER_0_53_189
*1027 FILLER_0_53_27
*1028 FILLER_0_53_3
*1029 FILLER_0_53_39
*1030 FILLER_0_53_51
*1031 FILLER_0_53_55
*1032 FILLER_0_53_57
*1033 FILLER_0_53_69
*1034 FILLER_0_53_81
*1035 FILLER_0_53_93
*1036 FILLER_0_54_109
*1037 FILLER_0_54_121
*1038 FILLER_0_54_133
*1039 FILLER_0_54_139
*1040 FILLER_0_54_141
*1041 FILLER_0_54_15
*1042 FILLER_0_54_153
*1043 FILLER_0_54_165
*1044 FILLER_0_54_177
*1045 FILLER_0_54_189
*1046 FILLER_0_54_27
*1047 FILLER_0_54_29
*1048 FILLER_0_54_3
*1049 FILLER_0_54_41
*1050 FILLER_0_54_53
*1051 FILLER_0_54_65
*1052 FILLER_0_54_77
*1053 FILLER_0_54_83
*1054 FILLER_0_54_85
*1055 FILLER_0_54_97
*1056 FILLER_0_55_105
*1057 FILLER_0_55_111
*1058 FILLER_0_55_113
*1059 FILLER_0_55_125
*1060 FILLER_0_55_137
*1061 FILLER_0_55_149
*1062 FILLER_0_55_15
*1063 FILLER_0_55_161
*1064 FILLER_0_55_167
*1065 FILLER_0_55_169
*1066 FILLER_0_55_181
*1067 FILLER_0_55_189
*1068 FILLER_0_55_27
*1069 FILLER_0_55_3
*1070 FILLER_0_55_39
*1071 FILLER_0_55_51
*1072 FILLER_0_55_55
*1073 FILLER_0_55_57
*1074 FILLER_0_55_69
*1075 FILLER_0_55_81
*1076 FILLER_0_55_93
*1077 FILLER_0_56_109
*1078 FILLER_0_56_121
*1079 FILLER_0_56_133
*1080 FILLER_0_56_139
*1081 FILLER_0_56_141
*1082 FILLER_0_56_15
*1083 FILLER_0_56_153
*1084 FILLER_0_56_165
*1085 FILLER_0_56_177
*1086 FILLER_0_56_189
*1087 FILLER_0_56_27
*1088 FILLER_0_56_29
*1089 FILLER_0_56_3
*1090 FILLER_0_56_41
*1091 FILLER_0_56_53
*1092 FILLER_0_56_65
*1093 FILLER_0_56_77
*1094 FILLER_0_56_83
*1095 FILLER_0_56_85
*1096 FILLER_0_56_97
*1097 FILLER_0_57_105
*1098 FILLER_0_57_111
*1099 FILLER_0_57_113
*1100 FILLER_0_57_125
*1101 FILLER_0_57_137
*1102 FILLER_0_57_149
*1103 FILLER_0_57_15
*1104 FILLER_0_57_161
*1105 FILLER_0_57_167
*1106 FILLER_0_57_169
*1107 FILLER_0_57_181
*1108 FILLER_0_57_189
*1109 FILLER_0_57_27
*1110 FILLER_0_57_3
*1111 FILLER_0_57_39
*1112 FILLER_0_57_51
*1113 FILLER_0_57_55
*1114 FILLER_0_57_57
*1115 FILLER_0_57_69
*1116 FILLER_0_57_81
*1117 FILLER_0_57_93
*1118 FILLER_0_58_109
*1119 FILLER_0_58_121
*1120 FILLER_0_58_133
*1121 FILLER_0_58_139
*1122 FILLER_0_58_141
*1123 FILLER_0_58_15
*1124 FILLER_0_58_153
*1125 FILLER_0_58_165
*1126 FILLER_0_58_177
*1127 FILLER_0_58_189
*1128 FILLER_0_58_27
*1129 FILLER_0_58_29
*1130 FILLER_0_58_3
*1131 FILLER_0_58_41
*1132 FILLER_0_58_53
*1133 FILLER_0_58_65
*1134 FILLER_0_58_77
*1135 FILLER_0_58_83
*1136 FILLER_0_58_85
*1137 FILLER_0_58_97
*1138 FILLER_0_59_105
*1139 FILLER_0_59_111
*1140 FILLER_0_59_113
*1141 FILLER_0_59_125
*1142 FILLER_0_59_137
*1143 FILLER_0_59_149
*1144 FILLER_0_59_15
*1145 FILLER_0_59_161
*1146 FILLER_0_59_167
*1147 FILLER_0_59_169
*1148 FILLER_0_59_181
*1149 FILLER_0_59_27
*1150 FILLER_0_59_3
*1151 FILLER_0_59_39
*1152 FILLER_0_59_51
*1153 FILLER_0_59_55
*1154 FILLER_0_59_57
*1155 FILLER_0_59_69
*1156 FILLER_0_59_81
*1157 FILLER_0_59_93
*1158 FILLER_0_5_105
*1159 FILLER_0_5_111
*1160 FILLER_0_5_113
*1161 FILLER_0_5_125
*1162 FILLER_0_5_137
*1163 FILLER_0_5_149
*1164 FILLER_0_5_15
*1165 FILLER_0_5_165
*1166 FILLER_0_5_189
*1167 FILLER_0_5_27
*1168 FILLER_0_5_3
*1169 FILLER_0_5_39
*1170 FILLER_0_5_51
*1171 FILLER_0_5_55
*1172 FILLER_0_5_57
*1173 FILLER_0_5_69
*1174 FILLER_0_5_81
*1175 FILLER_0_5_93
*1176 FILLER_0_60_109
*1177 FILLER_0_60_121
*1178 FILLER_0_60_133
*1179 FILLER_0_60_139
*1180 FILLER_0_60_141
*1181 FILLER_0_60_15
*1182 FILLER_0_60_153
*1183 FILLER_0_60_165
*1184 FILLER_0_60_177
*1185 FILLER_0_60_189
*1186 FILLER_0_60_27
*1187 FILLER_0_60_29
*1188 FILLER_0_60_3
*1189 FILLER_0_60_41
*1190 FILLER_0_60_53
*1191 FILLER_0_60_65
*1192 FILLER_0_60_77
*1193 FILLER_0_60_83
*1194 FILLER_0_60_85
*1195 FILLER_0_60_97
*1196 FILLER_0_61_105
*1197 FILLER_0_61_111
*1198 FILLER_0_61_113
*1199 FILLER_0_61_125
*1200 FILLER_0_61_137
*1201 FILLER_0_61_149
*1202 FILLER_0_61_15
*1203 FILLER_0_61_161
*1204 FILLER_0_61_167
*1205 FILLER_0_61_169
*1206 FILLER_0_61_181
*1207 FILLER_0_61_189
*1208 FILLER_0_61_27
*1209 FILLER_0_61_3
*1210 FILLER_0_61_39
*1211 FILLER_0_61_51
*1212 FILLER_0_61_55
*1213 FILLER_0_61_57
*1214 FILLER_0_61_69
*1215 FILLER_0_61_81
*1216 FILLER_0_61_93
*1217 FILLER_0_62_109
*1218 FILLER_0_62_121
*1219 FILLER_0_62_133
*1220 FILLER_0_62_139
*1221 FILLER_0_62_141
*1222 FILLER_0_62_15
*1223 FILLER_0_62_153
*1224 FILLER_0_62_165
*1225 FILLER_0_62_177
*1226 FILLER_0_62_189
*1227 FILLER_0_62_27
*1228 FILLER_0_62_29
*1229 FILLER_0_62_3
*1230 FILLER_0_62_41
*1231 FILLER_0_62_53
*1232 FILLER_0_62_65
*1233 FILLER_0_62_77
*1234 FILLER_0_62_83
*1235 FILLER_0_62_85
*1236 FILLER_0_62_97
*1237 FILLER_0_63_105
*1238 FILLER_0_63_111
*1239 FILLER_0_63_113
*1240 FILLER_0_63_125
*1241 FILLER_0_63_137
*1242 FILLER_0_63_149
*1243 FILLER_0_63_15
*1244 FILLER_0_63_161
*1245 FILLER_0_63_167
*1246 FILLER_0_63_169
*1247 FILLER_0_63_181
*1248 FILLER_0_63_189
*1249 FILLER_0_63_27
*1250 FILLER_0_63_3
*1251 FILLER_0_63_39
*1252 FILLER_0_63_51
*1253 FILLER_0_63_55
*1254 FILLER_0_63_57
*1255 FILLER_0_63_69
*1256 FILLER_0_63_81
*1257 FILLER_0_63_93
*1258 FILLER_0_64_109
*1259 FILLER_0_64_121
*1260 FILLER_0_64_133
*1261 FILLER_0_64_139
*1262 FILLER_0_64_141
*1263 FILLER_0_64_15
*1264 FILLER_0_64_153
*1265 FILLER_0_64_165
*1266 FILLER_0_64_177
*1267 FILLER_0_64_189
*1268 FILLER_0_64_27
*1269 FILLER_0_64_29
*1270 FILLER_0_64_3
*1271 FILLER_0_64_41
*1272 FILLER_0_64_53
*1273 FILLER_0_64_65
*1274 FILLER_0_64_77
*1275 FILLER_0_64_83
*1276 FILLER_0_64_85
*1277 FILLER_0_64_97
*1278 FILLER_0_65_105
*1279 FILLER_0_65_111
*1280 FILLER_0_65_113
*1281 FILLER_0_65_125
*1282 FILLER_0_65_137
*1283 FILLER_0_65_149
*1284 FILLER_0_65_15
*1285 FILLER_0_65_161
*1286 FILLER_0_65_167
*1287 FILLER_0_65_169
*1288 FILLER_0_65_181
*1289 FILLER_0_65_189
*1290 FILLER_0_65_27
*1291 FILLER_0_65_3
*1292 FILLER_0_65_39
*1293 FILLER_0_65_51
*1294 FILLER_0_65_55
*1295 FILLER_0_65_57
*1296 FILLER_0_65_69
*1297 FILLER_0_65_81
*1298 FILLER_0_65_93
*1299 FILLER_0_66_109
*1300 FILLER_0_66_121
*1301 FILLER_0_66_133
*1302 FILLER_0_66_139
*1303 FILLER_0_66_141
*1304 FILLER_0_66_15
*1305 FILLER_0_66_153
*1306 FILLER_0_66_165
*1307 FILLER_0_66_177
*1308 FILLER_0_66_189
*1309 FILLER_0_66_27
*1310 FILLER_0_66_29
*1311 FILLER_0_66_3
*1312 FILLER_0_66_41
*1313 FILLER_0_66_53
*1314 FILLER_0_66_65
*1315 FILLER_0_66_77
*1316 FILLER_0_66_83
*1317 FILLER_0_66_85
*1318 FILLER_0_66_97
*1319 FILLER_0_67_105
*1320 FILLER_0_67_111
*1321 FILLER_0_67_113
*1322 FILLER_0_67_125
*1323 FILLER_0_67_137
*1324 FILLER_0_67_149
*1325 FILLER_0_67_15
*1326 FILLER_0_67_161
*1327 FILLER_0_67_167
*1328 FILLER_0_67_169
*1329 FILLER_0_67_181
*1330 FILLER_0_67_189
*1331 FILLER_0_67_27
*1332 FILLER_0_67_3
*1333 FILLER_0_67_39
*1334 FILLER_0_67_51
*1335 FILLER_0_67_55
*1336 FILLER_0_67_57
*1337 FILLER_0_67_69
*1338 FILLER_0_67_81
*1339 FILLER_0_67_93
*1340 FILLER_0_68_109
*1341 FILLER_0_68_121
*1342 FILLER_0_68_133
*1343 FILLER_0_68_139
*1344 FILLER_0_68_141
*1345 FILLER_0_68_15
*1346 FILLER_0_68_153
*1347 FILLER_0_68_165
*1348 FILLER_0_68_177
*1349 FILLER_0_68_189
*1350 FILLER_0_68_27
*1351 FILLER_0_68_29
*1352 FILLER_0_68_3
*1353 FILLER_0_68_41
*1354 FILLER_0_68_53
*1355 FILLER_0_68_65
*1356 FILLER_0_68_77
*1357 FILLER_0_68_83
*1358 FILLER_0_68_85
*1359 FILLER_0_68_97
*1360 FILLER_0_69_105
*1361 FILLER_0_69_111
*1362 FILLER_0_69_113
*1363 FILLER_0_69_125
*1364 FILLER_0_69_137
*1365 FILLER_0_69_149
*1366 FILLER_0_69_15
*1367 FILLER_0_69_161
*1368 FILLER_0_69_167
*1369 FILLER_0_69_169
*1370 FILLER_0_69_181
*1371 FILLER_0_69_189
*1372 FILLER_0_69_27
*1373 FILLER_0_69_3
*1374 FILLER_0_69_39
*1375 FILLER_0_69_51
*1376 FILLER_0_69_55
*1377 FILLER_0_69_57
*1378 FILLER_0_69_69
*1379 FILLER_0_69_81
*1380 FILLER_0_69_93
*1381 FILLER_0_6_109
*1382 FILLER_0_6_121
*1383 FILLER_0_6_133
*1384 FILLER_0_6_139
*1385 FILLER_0_6_141
*1386 FILLER_0_6_15
*1387 FILLER_0_6_153
*1388 FILLER_0_6_157
*1389 FILLER_0_6_178
*1390 FILLER_0_6_27
*1391 FILLER_0_6_29
*1392 FILLER_0_6_3
*1393 FILLER_0_6_41
*1394 FILLER_0_6_53
*1395 FILLER_0_6_65
*1396 FILLER_0_6_77
*1397 FILLER_0_6_83
*1398 FILLER_0_6_85
*1399 FILLER_0_6_97
*1400 FILLER_0_70_109
*1401 FILLER_0_70_121
*1402 FILLER_0_70_133
*1403 FILLER_0_70_139
*1404 FILLER_0_70_141
*1405 FILLER_0_70_15
*1406 FILLER_0_70_153
*1407 FILLER_0_70_165
*1408 FILLER_0_70_177
*1409 FILLER_0_70_185
*1410 FILLER_0_70_27
*1411 FILLER_0_70_29
*1412 FILLER_0_70_3
*1413 FILLER_0_70_41
*1414 FILLER_0_70_53
*1415 FILLER_0_70_65
*1416 FILLER_0_70_77
*1417 FILLER_0_70_83
*1418 FILLER_0_70_85
*1419 FILLER_0_70_97
*1420 FILLER_0_71_105
*1421 FILLER_0_71_111
*1422 FILLER_0_71_113
*1423 FILLER_0_71_125
*1424 FILLER_0_71_137
*1425 FILLER_0_71_149
*1426 FILLER_0_71_15
*1427 FILLER_0_71_161
*1428 FILLER_0_71_167
*1429 FILLER_0_71_169
*1430 FILLER_0_71_173
*1431 FILLER_0_71_27
*1432 FILLER_0_71_3
*1433 FILLER_0_71_39
*1434 FILLER_0_71_51
*1435 FILLER_0_71_55
*1436 FILLER_0_71_57
*1437 FILLER_0_71_69
*1438 FILLER_0_71_81
*1439 FILLER_0_71_93
*1440 FILLER_0_72_109
*1441 FILLER_0_72_121
*1442 FILLER_0_72_133
*1443 FILLER_0_72_139
*1444 FILLER_0_72_141
*1445 FILLER_0_72_15
*1446 FILLER_0_72_153
*1447 FILLER_0_72_165
*1448 FILLER_0_72_177
*1449 FILLER_0_72_189
*1450 FILLER_0_72_27
*1451 FILLER_0_72_29
*1452 FILLER_0_72_3
*1453 FILLER_0_72_41
*1454 FILLER_0_72_53
*1455 FILLER_0_72_65
*1456 FILLER_0_72_77
*1457 FILLER_0_72_83